Version 4
SHEET 1 3260 2516
WIRE 1488 1216 1360 1216
WIRE 1632 1216 1488 1216
WIRE 1664 1216 1632 1216
WIRE 1984 1216 1952 1216
WIRE 2048 1216 1984 1216
WIRE 2144 1216 2112 1216
WIRE 1360 1232 1360 1216
WIRE 1488 1232 1488 1216
WIRE 1632 1296 1632 1216
WIRE 1664 1296 1632 1296
WIRE 1984 1296 1984 1280
WIRE 1984 1296 1952 1296
WIRE 2032 1296 1984 1296
WIRE 2112 1296 2096 1296
WIRE 1488 1312 1488 1296
WIRE 1360 1328 1360 1312
WIRE 1984 1344 1984 1296
WIRE 2592 1344 2576 1344
WIRE 2672 1344 2656 1344
WIRE 2304 1360 2176 1360
WIRE 2352 1360 2304 1360
WIRE 1584 1376 1568 1376
WIRE 1664 1376 1648 1376
WIRE 2176 1392 2176 1360
WIRE 2304 1392 2304 1360
WIRE 2352 1392 2352 1360
WIRE 2576 1392 2576 1344
WIRE 2672 1392 2672 1344
WIRE 1440 1456 1408 1456
WIRE 1552 1456 1520 1456
WIRE 1664 1456 1552 1456
WIRE 1984 1456 1984 1424
WIRE 1984 1456 1952 1456
WIRE 2048 1456 1984 1456
WIRE 2144 1456 2144 1216
WIRE 2144 1456 2112 1456
WIRE 2176 1456 2144 1456
WIRE 2208 1456 2176 1456
WIRE 2304 1456 2208 1456
WIRE 2448 1456 2304 1456
WIRE 2480 1456 2448 1456
WIRE 2880 1456 2768 1456
WIRE 2992 1456 2880 1456
WIRE 1408 1472 1408 1456
WIRE 1552 1472 1552 1456
WIRE 2208 1472 2208 1456
WIRE 1664 1536 1648 1536
WIRE 1984 1536 1952 1536
WIRE 2144 1536 2144 1456
WIRE 2144 1536 1984 1536
WIRE 1408 1552 1408 1536
WIRE 1552 1552 1552 1536
WIRE 2448 1552 2448 1456
WIRE 2480 1552 2448 1552
WIRE 2800 1552 2768 1552
WIRE 2208 1568 2208 1536
WIRE 2304 1568 2304 1456
WIRE 1664 1616 1632 1616
WIRE 1984 1616 1984 1600
WIRE 1984 1616 1952 1616
WIRE 2144 1616 2144 1536
WIRE 1984 1632 1984 1616
WIRE 2480 1648 2448 1648
WIRE 2800 1648 2800 1552
WIRE 2800 1648 2768 1648
WIRE 2448 1664 2448 1648
WIRE 2800 1664 2800 1648
WIRE 1744 1712 1744 1680
WIRE 1872 1712 1872 1680
WIRE 1984 1712 1984 1696
WIRE 1536 1744 1520 1744
WIRE 1632 1744 1632 1616
WIRE 1632 1744 1616 1744
WIRE 2144 1744 2144 1696
WIRE 2144 1744 1632 1744
WIRE 2288 1888 2128 1888
WIRE 2512 1888 2448 1888
WIRE 2640 1888 2592 1888
WIRE 2848 1888 2688 1888
WIRE 2448 1904 2448 1888
WIRE 2208 2000 2208 1968
WIRE 2768 2000 2768 1968
WIRE 2128 2016 2128 1888
WIRE 2176 2016 2128 2016
WIRE 2544 2016 2544 1984
WIRE 2688 2016 2688 1888
WIRE 2736 2016 2688 2016
WIRE 2288 2032 2288 1888
WIRE 2288 2032 2240 2032
WIRE 2352 2032 2288 2032
WIRE 2368 2032 2352 2032
WIRE 2448 2032 2448 1984
WIRE 2512 2032 2448 2032
WIRE 2848 2032 2848 1888
WIRE 2848 2032 2800 2032
WIRE 2864 2032 2848 2032
WIRE 2960 2032 2928 2032
WIRE 3088 2032 2960 2032
WIRE 1728 2048 1696 2048
WIRE 1840 2048 1808 2048
WIRE 1936 2048 1840 2048
WIRE 2176 2048 1936 2048
WIRE 2640 2048 2640 1888
WIRE 2640 2048 2576 2048
WIRE 2736 2048 2640 2048
WIRE 2512 2064 2448 2064
WIRE 2960 2064 2960 2032
WIRE 1840 2080 1840 2048
WIRE 2208 2096 2208 2064
WIRE 2768 2096 2768 2064
WIRE 1344 2112 1344 2064
WIRE 2544 2112 2544 2080
WIRE 2448 2128 2448 2064
WIRE 1840 2176 1840 2144
WIRE 2960 2192 2960 2144
WIRE 2288 2208 2128 2208
WIRE 1344 2224 1344 2192
WIRE 1936 2272 1936 2048
WIRE 1952 2272 1936 2272
WIRE 2032 2272 2016 2272
WIRE 2208 2320 2208 2288
WIRE 2288 2336 2288 2208
WIRE 2288 2336 2240 2336
WIRE 1936 2352 1936 2272
WIRE 1952 2352 1936 2352
WIRE 2032 2352 2032 2272
WIRE 2032 2352 2016 2352
WIRE 2128 2352 2128 2208
WIRE 2128 2352 2032 2352
WIRE 2176 2352 2128 2352
WIRE 2352 2368 2352 2032
WIRE 2352 2368 2240 2368
WIRE 2208 2416 2208 2384
FLAG 1360 1328 0
FLAG 1520 1744 0
FLAG 2208 1568 0
FLAG 1408 1552 0
FLAG 2304 1456 OUT
FLAG 1872 1712 0
FLAG 1744 1712 0
FLAG 1568 1376 0
FLAG 2112 1296 0
FLAG 1984 1712 0
FLAG 1648 1536 0
FLAG 1488 1312 0
FLAG 1360 1216 IN
FLAG 1552 1552 0
FLAG 2352 1392 0
FLAG 2448 1664 0
FLAG 2800 1664 0
FLAG 2880 1520 0
FLAG 1840 2176 0
FLAG 1696 2048 Vin
IOPIN 1696 2048 In
FLAG 2208 1968 vcc
IOPIN 2208 1968 In
FLAG 2208 2096 vee
IOPIN 2208 2096 In
FLAG 2208 2288 vcc
IOPIN 2208 2288 In
FLAG 2208 2416 vee
IOPIN 2208 2416 In
FLAG 2448 2128 0
FLAG 2544 1984 vcc
IOPIN 2544 1984 In
FLAG 2544 2112 vee
IOPIN 2544 2112 In
FLAG 2304 1568 vcc
IOPIN 2304 1568 In
FLAG 2992 1456 vee
IOPIN 2992 1456 In
FLAG 1344 2224 0
FLAG 1344 2064 Vin
IOPIN 1344 2064 In
FLAG 2768 2096 vee
IOPIN 2768 2096 In
FLAG 2768 1968 vcc
IOPIN 2768 1968 In
FLAG 3088 2032 out_meas
IOPIN 3088 2032 Out
FLAG 2960 2192 0
SYMBOL ind 1968 1328 R0
SYMATTR InstName L1
SYMATTR Value 220µ
SYMATTR SpiceLine Rser=.5
SYMBOL VOLTAGE 1360 1216 R0
WINDOW 0 23 21 Left 2
WINDOW 3 24 92 Left 2
WINDOW 123 0 0 Left 2
WINDOW 39 0 0 Left 2
SYMATTR InstName V1
SYMATTR Value 9
SYMBOL res 2128 1600 R0
SYMATTR InstName R2
SYMATTR Value 876K
SYMBOL res 1632 1728 R90
WINDOW 0 0 56 VBottom 2
WINDOW 3 32 56 VTop 2
SYMATTR InstName R3
SYMATTR Value 101K
SYMBOL cap 1392 1472 R0
SYMATTR InstName C3
SYMATTR Value 1000p
SYMBOL res 1536 1440 R90
WINDOW 0 0 56 VBottom 2
WINDOW 3 32 56 VTop 2
SYMATTR InstName R6
SYMATTR Value 68K
SYMBOL cap 1648 1360 R90
WINDOW 0 0 32 VBottom 2
WINDOW 3 30 31 VTop 2
SYMATTR InstName C5
SYMATTR Value .01µ
SYMBOL cap 1968 1280 M180
WINDOW 0 30 49 Left 2
WINDOW 3 25 14 Left 2
SYMATTR InstName C6
SYMATTR Value .1µ
SYMBOL schottky 2048 1472 R270
WINDOW 0 32 32 VTop 2
WINDOW 3 0 32 VBottom 2
SYMATTR InstName D4
SYMATTR Value 1N5817
SYMATTR Description Diode
SYMATTR Type diode
SYMBOL schottky 2096 1312 M270
WINDOW 0 32 32 VTop 2
WINDOW 3 0 32 VBottom 2
SYMATTR InstName D1
SYMATTR Value 1N5819
SYMATTR Description Diode
SYMATTR Type diode
SYMBOL diode 2112 1232 M270
WINDOW 0 32 32 VTop 2
WINDOW 3 0 32 VBottom 2
SYMATTR InstName D3
SYMATTR Value 1N4148
SYMBOL diode 1968 1536 R0
WINDOW 0 37 27 Left 2
WINDOW 3 29 54 Left 2
SYMATTR InstName D2
SYMATTR Value 1N4148
SYMBOL cap 1968 1696 M180
WINDOW 0 24 64 Left 2
WINDOW 3 24 8 Left 2
SYMATTR InstName C1
SYMATTR Value .1µ
SYMBOL PowerProducts\\LT3433 1808 1440 R0
SYMATTR InstName U1
SYMBOL cap 1472 1232 R0
SYMATTR InstName C4
SYMATTR Value 2.2µ
SYMBOL polcap 2192 1472 R0
SYMATTR InstName C2
SYMATTR Value 47µ
SYMATTR SpiceLine Rser=.2
SYMBOL cap 1536 1472 R0
SYMATTR InstName C7
SYMATTR Value 100p
SYMBOL cap 2160 1456 M180
WINDOW 0 24 64 Left 2
WINDOW 3 24 8 Left 2
SYMATTR InstName C8
SYMATTR Value .1µ
SYMBOL cap 2320 1456 R180
WINDOW 0 24 56 Left 2
WINDOW 3 24 8 Left 2
SYMATTR InstName C9
SYMATTR Value .01µ
SYMBOL PowerProducts\\LTC3261 2624 1552 R0
SYMATTR InstName U2
SYMBOL cap 2592 1328 M90
WINDOW 0 0 32 VBottom 2
WINDOW 3 32 32 VTop 2
SYMATTR InstName C10
SYMATTR Value 1µ
SYMBOL cap 2864 1456 R0
SYMATTR InstName C11
SYMATTR Value 10µ
SYMBOL Opamps\\LT1885 2208 2032 R0
SYMATTR InstName U3
SYMBOL Opamps\\LT1885 2208 2352 M0
SYMATTR InstName U4
SYMBOL Opamps\\LT1885 2544 2048 R0
SYMATTR InstName U5
SYMBOL Opamps\\LT1885 2768 2032 R0
SYMATTR InstName U6
SYMBOL res 1824 2032 R90
WINDOW 0 0 56 VBottom 2
WINDOW 3 32 56 VTop 2
SYMATTR InstName R1
SYMATTR Value 100k
SYMBOL cap 1824 2080 R0
SYMATTR InstName C12
SYMATTR Value 100p
SYMBOL schottky 1952 2288 R270
WINDOW 0 32 32 VTop 2
WINDOW 3 0 32 VBottom 2
SYMATTR InstName D5
SYMATTR Value BAT54
SYMATTR Description Diode
SYMATTR Type diode
SYMBOL schottky 2016 2336 R90
WINDOW 0 0 32 VBottom 2
WINDOW 3 32 32 VTop 2
SYMATTR InstName D6
SYMATTR Value BAT54
SYMATTR Description Diode
SYMATTR Type diode
SYMBOL res 2464 2016 R90
WINDOW 0 0 56 VBottom 2
WINDOW 3 32 56 VTop 2
SYMATTR InstName R4
SYMATTR Value 10k
SYMBOL res 2432 1888 R0
SYMATTR InstName R5
SYMATTR Value 9k1
SYMBOL res 2608 1872 R90
WINDOW 0 0 56 VBottom 2
WINDOW 3 32 56 VTop 2
SYMATTR InstName POT1
SYMATTR Value 2k
SYMBOL voltage 1344 2096 R0
WINDOW 123 0 0 Left 2
WINDOW 39 0 0 Left 2
SYMATTR InstName V2
SYMATTR Value SINE(0 5 60)
SYMBOL cap 2928 2016 R90
WINDOW 0 0 32 VBottom 2
WINDOW 3 32 32 VTop 2
SYMATTR InstName C13
SYMATTR Value 22µ
SYMBOL res 2944 2048 R0
SYMATTR InstName R7
SYMATTR Value 100k
TEXT 2200 1728 Left 2 !.tran 20m startup
TEXT 1656 1112 Bottom 2 ;LT3433 - High Voltage 60V Step-Up / Step-Down Converter with Burst Mode\nInput: 5V    Output: 5V @ 125mA
TEXT 1768 2224 Left 2 ;Flp = 15.9kHz
